<routes>
    <vType id="taxi" accel="2.6" decel="4.5" sigma="0.5" length="4.5" minGap="2.5" maxSpeed="50" color="1,0.8,0"/>
</routes>
